instances/data_GOC/Phase_0_RTS96/scenario_23/powersystem.raw
 0,  100.000000
rts96_spring_wday.raw / File written by to_psse.gms
5 / 19 / 2015
101, ' 101 ',138,2,1,1,1,1.00,0.00,1.1,0.9,1.1,0.9
102, ' 102 ',138,2,1,1,1,1.00,0.00,1.1,0.9,1.1,0.9
103, ' 103 ',138,1,1,1,1,1.00,0.00,1.1,0.9,1.1,0.9
104, ' 104 ',138,1,1,1,1,1.00,0.00,1.1,0.9,1.1,0.9
105, ' 105 ',138,1,1,1,1,1.00,0.00,1.1,0.9,1.1,0.9
106, ' 106 ',138,1,1,1,1,1.00,0.00,1.1,0.9,1.1,0.9
107, ' 107 ',138,2,1,1,1,1.00,0.00,1.1,0.9,1.1,0.9
108, ' 108 ',138,1,1,1,1,1.00,0.00,1.1,0.9,1.1,0.9
109, ' 109 ',138,1,1,1,1,1.00,0.00,1.1,0.9,1.1,0.9
110, ' 110 ',138,1,1,1,1,1.00,0.00,1.1,0.9,1.1,0.9
111, ' 111 ',230,1,1,1,1,1.00,0.00,1.1,0.9,1.1,0.9
112, ' 112 ',230,1,1,1,1,1.00,0.00,1.1,0.9,1.1,0.9
113, ' 113 ',230,3,1,1,1,1.00,0.00,1.1,0.9,1.1,0.9
114, ' 114 ',230,2,1,1,1,1.00,0.00,1.1,0.9,1.1,0.9
115, ' 115 ',230,2,1,1,1,1.00,0.00,1.1,0.9,1.1,0.9
116, ' 116 ',230,2,1,1,1,1.00,0.00,1.1,0.9,1.1,0.9
117, ' 117 ',230,1,1,1,1,1.00,0.00,1.1,0.9,1.1,0.9
118, ' 118 ',230,2,1,1,1,1.00,0.00,1.1,0.9,1.1,0.9
119, ' 119 ',230,1,1,1,1,1.00,0.00,1.1,0.9,1.1,0.9
120, ' 120 ',230,1,1,1,1,1.00,0.00,1.1,0.9,1.1,0.9
121, ' 121 ',230,2,1,1,1,1.00,0.00,1.1,0.9,1.1,0.9
122, ' 122 ',230,2,1,1,1,1.00,0.00,1.1,0.9,1.1,0.9
123, ' 123 ',230,2,1,1,1,1.00,0.00,1.1,0.9,1.1,0.9
124, ' 124 ',230,1,1,1,1,1.00,0.00,1.1,0.9,1.1,0.9
201, ' 201 ',138,2,1,1,1,1.00,0.00,1.1,0.9,1.1,0.9
202, ' 202 ',138,2,1,1,1,1.00,0.00,1.1,0.9,1.1,0.9
203, ' 203 ',138,1,1,1,1,1.00,0.00,1.1,0.9,1.1,0.9
204, ' 204 ',138,1,1,1,1,1.00,0.00,1.1,0.9,1.1,0.9
205, ' 205 ',138,1,1,1,1,1.00,0.00,1.1,0.9,1.1,0.9
206, ' 206 ',138,1,1,1,1,1.00,0.00,1.1,0.9,1.1,0.9
207, ' 207 ',138,2,1,1,1,1.00,0.00,1.1,0.9,1.1,0.9
208, ' 208 ',138,1,1,1,1,1.00,0.00,1.1,0.9,1.1,0.9
209, ' 209 ',138,1,1,1,1,1.00,0.00,1.1,0.9,1.1,0.9
210, ' 210 ',138,1,1,1,1,1.00,0.00,1.1,0.9,1.1,0.9
211, ' 211 ',230,1,1,1,1,1.00,0.00,1.1,0.9,1.1,0.9
212, ' 212 ',230,1,1,1,1,1.00,0.00,1.1,0.9,1.1,0.9
213, ' 213 ',230,2,1,1,1,1.00,0.00,1.1,0.9,1.1,0.9
214, ' 214 ',230,2,1,1,1,1.00,0.00,1.1,0.9,1.1,0.9
215, ' 215 ',230,2,1,1,1,1.00,0.00,1.1,0.9,1.1,0.9
216, ' 216 ',230,2,1,1,1,1.00,0.00,1.1,0.9,1.1,0.9
217, ' 217 ',230,1,1,1,1,1.00,0.00,1.1,0.9,1.1,0.9
218, ' 218 ',230,2,1,1,1,1.00,0.00,1.1,0.9,1.1,0.9
219, ' 219 ',230,1,1,1,1,1.00,0.00,1.1,0.9,1.1,0.9
220, ' 220 ',230,1,1,1,1,1.00,0.00,1.1,0.9,1.1,0.9
221, ' 221 ',230,2,1,1,1,1.00,0.00,1.1,0.9,1.1,0.9
222, ' 222 ',230,2,1,1,1,1.00,0.00,1.1,0.9,1.1,0.9
223, ' 223 ',230,2,1,1,1,1.00,0.00,1.1,0.9,1.1,0.9
224, ' 224 ',230,1,1,1,1,1.00,0.00,1.1,0.9,1.1,0.9
301, ' 301 ',138,2,1,1,1,1.00,0.00,1.1,0.9,1.1,0.9
302, ' 302 ',138,2,1,1,1,1.00,0.00,1.1,0.9,1.1,0.9
303, ' 303 ',138,1,1,1,1,1.00,0.00,1.1,0.9,1.1,0.9
304, ' 304 ',138,1,1,1,1,1.00,0.00,1.1,0.9,1.1,0.9
305, ' 305 ',138,1,1,1,1,1.00,0.00,1.1,0.9,1.1,0.9
306, ' 306 ',138,1,1,1,1,1.00,0.00,1.1,0.9,1.1,0.9
307, ' 307 ',138,2,1,1,1,1.00,0.00,1.1,0.9,1.1,0.9
308, ' 308 ',138,1,1,1,1,1.00,0.00,1.1,0.9,1.1,0.9
309, ' 309 ',138,1,1,1,1,1.00,0.00,1.1,0.9,1.1,0.9
310, ' 310 ',138,1,1,1,1,1.00,0.00,1.1,0.9,1.1,0.9
311, ' 311 ',230,1,1,1,1,1.00,0.00,1.1,0.9,1.1,0.9
312, ' 312 ',230,1,1,1,1,1.00,0.00,1.1,0.9,1.1,0.9
313, ' 313 ',230,2,1,1,1,1.00,0.00,1.1,0.9,1.1,0.9
314, ' 314 ',230,2,1,1,1,1.00,0.00,1.1,0.9,1.1,0.9
315, ' 315 ',230,2,1,1,1,1.00,0.00,1.1,0.9,1.1,0.9
316, ' 316 ',230,2,1,1,1,1.00,0.00,1.1,0.9,1.1,0.9
317, ' 317 ',230,1,1,1,1,1.00,0.00,1.1,0.9,1.1,0.9
318, ' 318 ',230,2,1,1,1,1.00,0.00,1.1,0.9,1.1,0.9
319, ' 319 ',230,1,1,1,1,1.00,0.00,1.1,0.9,1.1,0.9
320, ' 320 ',230,1,1,1,1,1.00,0.00,1.1,0.9,1.1,0.9
321, ' 321 ',230,2,1,1,1,1.00,0.00,1.1,0.9,1.1,0.9
322, ' 322 ',230,2,1,1,1,1.00,0.00,1.1,0.9,1.1,0.9
323, ' 323 ',230,2,1,1,1,1.00,0.00,1.1,0.9,1.1,0.9
324, ' 324 ',230,1,1,1,1,1.00,0.00,1.1,0.9,1.1,0.9
325, ' 325 ',230,1,1,1,1,1.00,0.00,1.1,0.9,1.1,0.9
0 / END OF BUS DATA, BEGIN LOAD DATA
101, '1 ',1,11,11,62.76568045601137,12.722528381456808,0.0,0.0,0.0,0.0,1,1,0
102, '1 ',1,11,12,85.21172745820144,13.872765935559755,0.0,0.0,0.0,0.0,1,1,0
103, '1 ',1,11,11,122.82050665818805,24.591494184638183,0.0,0.0,0.0,0.0,1,1,0
104, '1 ',1,11,11,36.17070325666051,12.556425271526447,0.0,0.0,0.0,0.0,1,1,0
105, '1 ',1,11,11,39.418458526284574,8.411657185964193,0.0,0.0,0.0,0.0,1,1,0
106, '1 ',1,11,12,88.95911409356968,15.569180742574856,0.0,0.0,0.0,0.0,1,1,0
107, '1 ',1,11,12,68.22722591136116,21.44062605745741,0.0,0.0,0.0,0.0,1,1,0
108, '1 ',1,11,12,112.01700855967803,27.169548971540994,0.0,0.0,0.0,0.0,1,1,0
109, '1 ',1,11,13,104.59761939396034,32.379563030646,0.0,0.0,0.0,0.0,1,1,0
110, '1 ',1,11,13,139.62867226789123,22.039099634762852,0.0,0.0,0.0,0.0,1,1,0
111, '1 ',1,11,13,0.0,0.0,0.0,0.0,0.0,0.0,1,1,0
112, '1 ',1,11,13,0.0,0.0,0.0,0.0,0.0,0.0,1,1,0
113, '1 ',1,12,14,152.61873269843892,32.817855455746596,0.0,0.0,0.0,0.0,1,1,0
114, '1 ',1,12,16,152.88955909315226,26.974992683719844,0.0,0.0,0.0,0.0,1,1,0
115, '1 ',1,12,16,186.20279188743925,45.9892344273001,0.0,0.0,0.0,0.0,1,1,0
116, '1 ',1,12,16,59.41336688539478,15.72355759079475,0.0,0.0,0.0,0.0,1,1,0
117, '1 ',1,12,17,0.0,0.0,0.0,0.0,0.0,0.0,1,1,0
118, '1 ',1,12,17,217.5822447264661,47.52736799881887,0.0,0.0,0.0,0.0,1,1,0
119, '1 ',1,12,15,111.53626265374585,20.414282462298356,0.0,0.0,0.0,0.0,1,1,0
120, '1 ',1,12,15,92.05250995531082,15.644318749915437,0.0,0.0,0.0,0.0,1,1,0
121, '1 ',1,12,17,0.0,0.0,0.0,0.0,0.0,0.0,1,1,0
122, '1 ',1,12,17,0.0,0.0,0.0,0.0,0.0,0.0,1,1,0
123, '1 ',1,12,15,0.0,0.0,0.0,0.0,0.0,0.0,1,1,0
124, '1 ',1,12,16,0.0,0.0,0.0,0.0,0.0,0.0,1,1,0
201, '1 ',1,21,21,69.46261999570503,18.608208095042784,0.0,0.0,0.0,0.0,1,1,0
202, '1 ',1,21,22,58.8294880196468,14.85578388017323,0.0,0.0,0.0,0.0,1,1,0
203, '1 ',1,21,21,105.50083415553532,18.230965945118943,0.0,0.0,0.0,0.0,1,1,0
204, '1 ',1,21,21,51.95825428051315,10.000146252072415,0.0,0.0,0.0,0.0,1,1,0
205, '1 ',1,21,21,43.79361484041727,11.540575483681819,0.0,0.0,0.0,0.0,1,1,0
206, '1 ',1,21,22,110.45196060813927,17.81821256212089,0.0,0.0,0.0,0.0,1,1,0
207, '1 ',1,21,22,61.185473318060396,18.739826050323902,0.0,0.0,0.0,0.0,1,1,0
208, '1 ',1,21,22,91.7891072115134,17.727305578325876,0.0,0.0,0.0,0.0,1,1,0
209, '1 ',1,21,23,84.98783919090056,21.31324445627723,0.0,0.0,0.0,0.0,1,1,0
210, '1 ',1,21,23,132.9539731897458,29.970565401144324,0.0,0.0,0.0,0.0,1,1,0
211, '1 ',1,21,23,0.0,0.0,0.0,0.0,0.0,0.0,1,1,0
212, '1 ',1,21,23,0.0,0.0,0.0,0.0,0.0,0.0,1,1,0
213, '1 ',1,22,24,149.51422060689563,46.20104741539322,0.0,0.0,0.0,0.0,1,1,0
214, '1 ',1,22,26,137.39798058193372,30.793104718125477,0.0,0.0,0.0,0.0,1,1,0
215, '1 ',1,22,26,201.95361058300907,53.768688053467876,0.0,0.0,0.0,0.0,1,1,0
216, '1 ',1,22,26,71.74803278566337,14.982001695083454,0.0,0.0,0.0,0.0,1,1,0
217, '1 ',1,22,27,0.0,0.0,0.0,0.0,0.0,0.0,1,1,0
218, '1 ',1,22,27,218.13607346003053,56.52198164040316,0.0,0.0,0.0,0.0,1,1,0
219, '1 ',1,22,25,140.75372526733847,29.990430646015653,0.0,0.0,0.0,0.0,1,1,0
220, '1 ',1,22,25,75.0608606220603,18.918145973470622,0.0,0.0,0.0,0.0,1,1,0
221, '1 ',1,22,27,0.0,0.0,0.0,0.0,0.0,0.0,1,1,0
222, '1 ',1,22,27,0.0,0.0,0.0,0.0,0.0,0.0,1,1,0
223, '1 ',1,22,25,0.0,0.0,0.0,0.0,0.0,0.0,1,1,0
224, '1 ',1,22,26,0.0,0.0,0.0,0.0,0.0,0.0,1,1,0
301, '1 ',1,31,31,86.82233686305005,14.577149688794744,0.0,0.0,0.0,0.0,1,1,0
302, '1 ',1,31,32,70.59200247741603,10.362693895968606,0.0,0.0,0.0,0.0,1,1,0
303, '1 ',1,31,31,101.06030566658545,20.32835950836553,0.0,0.0,0.0,0.0,1,1,0
304, '1 ',1,31,31,62.195132451139386,8.57586065938929,0.0,0.0,0.0,0.0,1,1,0
305, '1 ',1,31,31,63.282263577535986,10.956900474947691,0.0,0.0,0.0,0.0,1,1,0
306, '1 ',1,31,32,75.23342059314027,23.437228827715852,0.0,0.0,0.0,0.0,1,1,0
307, '1 ',1,31,32,87.99073727728101,22.422975718769013,0.0,0.0,0.0,0.0,1,1,0
308, '1 ',1,31,32,103.50331561389751,19.786755476240767,0.0,0.0,0.0,0.0,1,1,0
309, '1 ',1,31,33,143.30328958437312,23.183927686163038,0.0,0.0,0.0,0.0,1,1,0
310, '1 ',1,31,33,124.70697427396452,26.54721000153757,0.0,0.0,0.0,0.0,1,1,0
311, '1 ',1,31,33,0.0,0.0,0.0,0.0,0.0,0.0,1,1,0
312, '1 ',1,31,33,0.0,0.0,0.0,0.0,0.0,0.0,1,1,0
313, '1 ',1,32,34,208.8804282360105,35.24835053070914,0.0,0.0,0.0,0.0,1,1,0
314, '1 ',1,32,36,154.5471976834992,26.211517040040857,0.0,0.0,0.0,0.0,1,1,0
315, '1 ',1,32,36,263.1475454622613,55.45309037097394,0.0,0.0,0.0,0.0,1,1,0
316, '1 ',1,32,36,53.33153930625412,15.76145653816592,0.0,0.0,0.0,0.0,1,1,0
317, '1 ',1,32,37,0.0,0.0,0.0,0.0,0.0,0.0,1,1,0
318, '1 ',1,32,37,287.5314087999193,56.62351054374352,0.0,0.0,0.0,0.0,1,1,0
319, '1 ',1,32,35,147.35048600234092,32.88504653626238,0.0,0.0,0.0,0.0,1,1,0
320, '1 ',1,32,35,96.62059865882992,15.664978778965306,0.0,0.0,0.0,0.0,1,1,0
321, '1 ',1,32,37,0.0,0.0,0.0,0.0,0.0,0.0,1,1,0
322, '1 ',1,32,37,0.0,0.0,0.0,0.0,0.0,0.0,1,1,0
323, '1 ',1,32,35,0.0,0.0,0.0,0.0,0.0,0.0,1,1,0
324, '1 ',1,32,36,0.0,0.0,0.0,0.0,0.0,0.0,1,1,0
325, '1 ',1,32,35,0.0,0.0,0.0,0.0,0.0,0.0,1,1,0
0 / END OF LOAD DATA, BEGIN FIXED SHUNT DATA
0 / END OF FIXED SHUNT DATA, BEGIN GENERATOR DATA
101,1,10,0,8.27705262415111,-2.971720931120217,1.035,0,24,0,1,0,0,1,1,100,22.022867316380143,17.55840138848871,1,1,0,1
101,2,10,0,11.187804185319692,-0.10673069301992655,1.035,0,24,0,1,0,0,1,1,100,14.088905927725135,10.04753107492812,1,1,0,1
101,3,76,14.1,38.55445847008377,-4.945786918047816,1.035,0,89,0,1,0,0,1,1,100,69.24771365765483,15.974304939694711,1,1,0,1
101,4,76,14.1,38.242148854304105,-14.836045584874228,1.035,0,89,0,1,0,0,1,1,100,86.83305621277542,19.631538118384796,1,1,0,1
102,5,10,0,8.655191944446415,-2.674015344120562,1.035,0,24,0,1,0,0,1,1,100,15.592286631464958,11.90590899634175,1,1,0,1
102,6,10,0,8.368499191943556,0.5905638048425326,1.035,0,24,0,1,0,0,1,1,100,17.4016590481624,13.681806034948677,1,1,0,1
102,7,76,7,25.287365650758144,-15.771139712538574,1.035,0,89,0,1,0,0,1,1,100,83.01387191135437,25.548541067726923,1,1,0,1
102,8,76,7,36.76374989608303,-10.007233269512653,1.035,0,89,0,1,0,0,1,1,100,54.06200874894857,18.65174101774684,1,1,0,1
107,9,80,17.2,52.6482919966802,6.11412061192096,1.025,0,118,0,1,0,0,1,1,100,122.0093992864713,47.90490151615812,1,1,0,1
107,10,80,17.2,65.50518882460892,-8.22493045963347,1.025,0,118,0,1,0,0,1,1,100,102.35031322576104,37.32382878079078,1,1,0,1
107,11,80,17.2,61.08308776002377,14.953812707215548,1.025,0,118,0,1,0,0,1,1,100,80.02619695849717,18.750524154455096,1,1,0,1
113,12,95.1,40.7,94.48724507540464,5.714751709252596,1.02,0,232,0,1,0,0,1,1,100,219.75370972114615,101.70524783010362,1,1,0,1
113,13,95.1,40.7,64.03621057420969,-0.1274457424879074,1.02,0,232,0,1,0,0,1,1,100,187.47357561974786,36.9245993881882,1,1,0,1
113,14,95.1,40.7,65.21569649875164,1.462598629295826,1.02,0,232,0,1,0,0,1,1,100,221.35692208334805,94.6408191383956,1,1,0,1
114,15,0,13.7,177.2418060619384,1.8226956762373732,0.98,0,100,0,1,0,0,1,1,100,0.0,0.0,1,1,0,1
115,16,12,0,4.885972070507705,-0.5817936650477353,1.014,0,14,0,1,0,0,1,1,100,14.55305319260806,7.204493621997537,1,1,0,1
115,17,12,0,5.535369436629116,-0.4593769524246465,1.014,0,14,0,1,0,0,1,1,100,11.149797161668538,2.0481140081584446,1,1,0,1
115,18,12,0,4.913290074281394,-1.4797934973612437,1.014,0,14,0,1,0,0,1,1,100,14.253764037787915,2.6004484789073476,1,1,0,1
115,19,12,0,6.402455294597893,0.002398996241390172,1.014,0,14,0,1,0,0,1,1,100,13.229853568598628,1.8255820340663202,1,1,0,1
115,20,12,0,5.684863480925561,-1.4016990574076758,1.014,0,14,0,1,0,0,1,1,100,8.990197534672916,0.6509162754938007,1,1,0,1
115,21,155,0.05,65.54987329989672,-69.8867459227331,1.014,0,182,0,1,0,0,1,1,100,200.49472773773596,112.25560664037475,1,1,0,1
116,22,155,25.22,67.62641906738281,-26.89472587686032,1.017,0,182,0,1,0,0,1,1,100,199.2300293829758,97.62980217405132,1,1,0,1
118,23,400,137.4,205.13918436132371,-51.79410588229075,1.05,0,471,0,1,0,0,1,1,100,503.63019334152347,259.10833971109247,1,1,0,1
121,24,400,108.2,182.84226762130857,-93.32389910472557,1.05,0,471,0,1,0,0,1,1,100,426.91143464297056,91.91062267869711,1,1,0,1
122,25,50,-4.96,20.493023011088372,-3.6018317217007265,1.05,0,53,0,1,0,0,1,1,100,62.40032290574163,13.195165728684515,1,1,0,1
122,26,50,-4.96,11.381141059100628,-13.3160529547371,1.05,0,53,0,1,0,0,1,1,100,35.719137103296816,32.17734223656099,1,1,0,1
122,27,50,-4.96,19.83462581783533,-8.728731255047023,1.05,0,53,0,1,0,0,1,1,100,41.56900986097753,29.483760023407644,1,1,0,1
122,28,50,-4.96,18.982443690299988,-5.453297170717267,1.05,0,53,0,1,0,0,1,1,100,61.62774377269671,20.429514460265644,1,1,0,1
122,29,50,-4.96,15.153662533313035,-17.0412036228925,1.05,0,53,0,1,0,0,1,1,100,52.46935504721477,0.0011907052248574246,1,1,0,1
122,30,50,-4.96,14.352844963222742,-14.017647372558715,1.05,0,53,0,1,0,0,1,1,100,40.84271306870505,24.660215657604045,1,1,0,1
123,31,155,31.79,86.67185786366463,-62.54026317410171,1.05,0,182,0,1,0,0,1,1,100,143.29145000432618,29.954215850832398,1,1,0,1
123,32,155,31.79,71.95254772901535,-33.08798457682133,1.05,0,182,0,1,0,0,1,1,100,172.20094028068706,42.896329806372506,1,1,0,1
123,33,350,71.78,117.89691174868493,-32.26166752283463,1.05,0,412,0,1,0,0,1,1,100,278.29445777693763,67.38510841270909,1,1,0,1
201,34,10,0,12.392753324471414,1.285720902029425,1.035,0,24,0,1,0,0,1,1,100,25.303576907142997,20.402713092742488,1,1,0,1
201,35,10,0,11.368833439890295,3.3946888223290443,1.035,0,24,0,1,0,0,1,1,100,23.886503257788718,19.155928041459994,1,1,0,1
201,36,76,14.1,26.90817621583119,-15.9527143901214,1.035,0,89,0,1,0,0,1,1,100,60.557436319440605,17.746409148615978,1,1,0,1
201,37,76,14.1,31.301090931985524,-15.58215320296586,1.035,0,89,0,1,0,0,1,1,100,86.79476005379111,36.03202078673989,1,1,0,1
202,38,10,0,8.015363495331258,-0.3422498689033091,1.035,0,24,0,1,0,0,1,1,100,25.114362922497094,21.2922787817847,1,1,0,1
202,39,10,0,10.246536273974925,0.9161504893563688,1.035,0,24,0,1,0,0,1,1,100,21.616535795852542,18.557815669411795,1,1,0,1
202,40,76,7,35.75355985807255,-11.090285249985754,1.035,0,89,0,1,0,0,1,1,100,74.85199447311462,16.78890377737583,1,1,0,1
202,41,76,7,36.007138572167605,-22.485178113216534,1.035,0,89,0,1,0,0,1,1,100,96.86139069739728,18.055211042053998,1,1,0,1
207,42,80,17.2,44.75367604661733,-15.224458996206522,1.025,0,118,0,1,0,0,1,1,100,123.8437856407836,61.39996344922109,1,1,0,1
207,43,80,17.2,62.875055409036584,2.1575775062665414,1.025,0,118,0,1,0,0,1,1,100,108.6815084191039,39.6265422226861,1,1,0,1
207,44,80,17.2,56.81042504031211,3.6035065725445747,1.025,0,118,0,1,0,0,1,1,100,71.74680141732097,49.08874374261654,1,1,0,1
213,45,95.1,40.7,68.70846747979522,-8.841410357505083,1.02,0,232,0,1,0,0,1,1,100,183.7670643808786,38.23874976922758,1,1,0,1
213,46,95.1,40.7,100.25080858543515,33.219479855149984,1.02,0,232,0,1,0,0,1,1,100,154.28533760602585,39.00557294395517,1,1,0,1
213,47,95.1,40.7,76.14466575160623,1.6579153575003147,1.02,0,232,0,1,0,0,1,1,100,222.27241887715647,100.93720811630133,1,1,0,1
214,48,0,13.68,170.7601979933679,-9.013215291779488,0.98,0,100,0,1,0,0,1,1,100,0.0,0.0,1,1,0,1
215,49,12,0,7.169274210836739,2.769940848927946,1.014,0,14,0,1,0,0,1,1,100,10.491883079521358,0.3450106806680555,1,1,0,1
215,50,12,0,5.842144079413265,-0.8862366635352377,1.014,0,14,0,1,0,0,1,1,100,11.868054428882896,1.59509330470115,1,1,0,1
215,51,12,0,5.934977816138417,-1.2388493087142693,1.014,0,14,0,1,0,0,1,1,100,14.846588103845717,4.682062026187779,1,1,0,1
215,52,12,0,7.509636061638594,0.946519941464067,1.014,0,14,0,1,0,0,1,1,100,11.930990156717598,4.114209691174329,1,1,0,1
215,53,12,0,4.71271816464141,-0.7353040088899432,1.014,0,14,0,1,0,0,1,1,100,11.685801466181875,2.370728578940035,1,1,0,1
215,54,155,0.048,80.68006556853652,-20.48939988715574,1.014,0,182,0,1,0,0,1,1,100,123.2575369628612,7.487003055994862,1,1,0,1
216,55,155,25.22,80.36210221797228,-39.24965636944398,1.017,0,182,0,1,0,0,1,1,100,192.79324053041637,116.61895489587914,1,1,0,1
218,56,400,137.4,166.14186115562916,-80.10784793645144,1.05,0,471,0,1,0,0,1,1,100,491.30177376791835,183.33242908585817,1,1,0,1
221,57,400,108.2,212.90476264432075,-78.00057215616104,1.05,0,471,0,1,0,0,1,1,100,314.11255966871977,85.10910087730736,1,1,0,1
222,58,50,-4.96,12.76861242428422,-18.32773551819846,1.05,0,53,0,1,0,0,1,1,100,37.14186569442972,14.697051146501083,1,1,0,1
222,59,50,-4.96,20.708743073046207,-8.187111372128129,1.05,0,53,0,1,0,0,1,1,100,46.95269599324092,10.121465621050454,1,1,0,1
222,60,50,-4.96,11.298688648641109,-16.240152423176916,1.05,0,53,0,1,0,0,1,1,100,56.664937431924045,8.942169842775918,1,1,0,1
222,61,50,-4.96,12.681479941308497,-8.188997691776605,1.05,0,53,0,1,0,0,1,1,100,63.509584725834436,27.84341393737123,1,1,0,1
222,62,50,-4.96,19.3568832449615,-8.190887233149258,1.05,0,53,0,1,0,0,1,1,100,59.65323217678815,2.352682985365398,1,1,0,1
222,63,50,-4.96,13.873702131956815,-7.775211523659529,1.05,0,53,0,1,0,0,1,1,100,59.84339023474604,18.528592775110155,1,1,0,1
223,64,155,31.79,74.32212249562144,-26.780801824759692,1.05,0,182,0,1,0,0,1,1,100,142.53398415935226,14.301064497977478,1,1,0,1
223,65,155,31.79,63.0275812856853,-102.72553134057671,1.05,0,182,0,1,0,0,1,1,100,123.91049792291597,21.873646384815217,1,1,0,1
223,66,350,71.78,172.20720782177523,-55.076196626760094,1.05,0,412,0,1,0,0,1,1,100,365.07342710625386,121.84586362494161,1,1,0,1
301,67,10,0,7.840065639466047,-1.4501685057766736,1.035,0,24,0,1,0,0,1,1,100,20.553500059992075,17.611731458893047,1,1,0,1
301,68,10,0,8.666001667268574,0.9278041860088706,1.035,0,24,0,1,0,0,1,1,100,23.07513189315796,19.759656685655937,1,1,0,1
301,69,76,14.1,25.68499020393938,-36.72102283756248,1.035,0,89,0,1,0,0,1,1,100,84.40730254147202,37.977679448612044,1,1,0,1
301,70,76,14.1,38.63382697524503,-20.829950730782002,1.035,0,89,0,1,0,0,1,1,100,82.80044613778591,12.558205354511742,1,1,0,1
302,71,10,0,7.939541548024862,-3.351665656082333,1.035,0,24,0,1,0,0,1,1,100,17.105515655130148,12.147656538579614,1,1,0,1
302,72,10,0,9.632345747668296,-0.7367274044081569,1.035,0,24,0,1,0,0,1,1,100,23.864556431770325,19.949871566211804,1,1,0,1
302,73,76,7,36.41343450592831,-9.30573069024831,1.035,0,89,0,1,0,0,1,1,100,86.37839894350618,29.278384582810105,1,1,0,1
302,74,76,7,33.296961987856776,-38.11140561127104,1.035,0,89,0,1,0,0,1,1,100,89.48509020972996,19.25989280838519,1,1,0,1
307,75,80,17.2,52.499187209643424,-7.179415578022599,1.025,0,118,0,1,0,0,1,1,100,73.8725343439728,4.632980775786564,1,1,0,1
307,76,80,17.2,56.69939853530377,-21.208302704617395,1.025,0,118,0,1,0,0,1,1,100,124.67900690622629,66.05020859278741,1,1,0,1
307,77,80,17.2,53.363829237408936,-23.49866930488497,1.025,0,118,0,1,0,0,1,1,100,88.95472133532166,26.716560097411282,1,1,0,1
313,78,95.1,40.7,78.82393165677786,-0.9387416616082191,1.02,0,232,0,1,0,0,1,1,100,212.40027524805626,55.668712789088005,1,1,0,1
313,79,95.1,40.7,56.90119465813041,-9.022530611604452,1.02,0,232,0,1,0,0,1,1,100,145.97753178314304,45.348965657367344,1,1,0,1
313,80,95.1,40.7,64.5817261338234,-6.9239565543830395,1.02,0,232,0,1,0,0,1,1,100,194.04866781658495,91.14149107558188,1,1,0,1
314,81,0,13.68,256.89931709319353,45.856865025125444,0.98,0,100,0,1,0,0,1,1,100,0.0,0.0,1,1,0,1
315,82,12,0,5.400621864851564,0.6010468211956326,1.014,0,14,0,1,0,0,1,1,100,13.924867333844304,5.3653172097355135,1,1,0,1
315,83,12,0,6.153447950631381,-0.5540252890437829,1.014,0,14,0,1,0,0,1,1,100,15.056634887494148,5.729069720394911,1,1,0,1
315,84,12,0,5.153839416615664,-0.28863006038591266,1.014,0,14,0,1,0,0,1,1,100,11.3284497667104,3.276404046043753,1,1,0,1
315,85,12,0,6.802195774577559,0.33122653188183904,1.014,0,14,0,1,0,0,1,1,100,9.564295553974807,7.037614193648478,1,1,0,1
315,86,12,0,7.39102765666321,2.14731305781752,1.014,0,14,0,1,0,0,1,1,100,13.128728669509293,2.566390303149822,1,1,0,1
315,87,155,0.048,95.39787105098367,-30.67246100632474,1.014,0,182,0,1,0,0,1,1,100,162.57994028367102,83.89715442463057,1,1,0,1
316,88,155,25.22,101.80671251565218,-7.474908055271953,1.017,0,182,0,1,0,0,1,1,100,145.80121154687367,16.335786071233457,1,1,0,1
318,89,400,137.4,214.8370481468737,-64.29102786118165,1.05,0,471,0,1,0,0,1,1,100,506.3865933194757,167.77593370527035,1,1,0,1
321,90,400,108.2,204.77377822622657,12.323998848441988,1.05,0,471,0,1,0,0,1,1,100,446.6312189958989,89.02133072726423,1,1,0,1
322,91,50,-4.96,18.014627157896758,-5.384030159190296,1.05,0,53,0,1,0,0,1,1,100,51.236602962017066,47.82890519332691,1,1,0,1
322,92,50,-4.96,14.84350827112794,-18.391687238030137,1.05,0,53,0,1,0,0,1,1,100,53.326406329870224,15.915854789782315,1,1,0,1
322,93,50,-4.96,18.273768502473832,-13.378833616524933,1.05,0,53,0,1,0,0,1,1,100,54.4682183000259,3.1562556442804564,1,1,0,1
322,94,50,-4.96,17.469816563278435,-4.779031764902175,1.05,0,53,0,1,0,0,1,1,100,43.41046540765092,18.071733274482554,1,1,0,1
322,95,50,-4.96,11.82923456504941,-11.323915386851878,1.05,0,53,0,1,0,0,1,1,100,45.027015681844205,28.17071173543654,1,1,0,1
322,96,50,-4.96,15.383720368146896,-17.45316744176671,1.05,0,53,0,1,0,0,1,1,100,49.282021443359554,5.613833083771169,1,1,0,1
323,97,155,31.79,73.39235092326999,-40.4386634780094,1.05,0,182,0,1,0,0,1,1,100,173.4844142550137,61.691192823834726,1,1,0,1
323,98,155,31.79,88.7610245756805,-72.7610089960508,1.05,0,182,0,1,0,0,1,1,100,146.45963512384333,19.080098579509652,1,1,0,1
323,99,350,71.78,116.59098826814441,-29.57563281175682,1.05,0,412,0,1,0,0,1,1,100,384.03939314885065,159.35281812911853,1,1,0,1
0 / END OF GENERATOR DATA, BEGIN BRANCH DATA
101,102,1,0.003,0.014,0.461,210.0,231.6,240.0,0,0,0,0,1,1,0,1,1
101,103,1,0.055,0.211,0.057,210.0,249.6,264.0,0,0,0,0,1,1,0,1,1
101,105,1,0.022,0.085,0.023,210.0,249.6,264.0,0,0,0,0,1,1,0,1,1
102,104,1,0.033,0.127,0.034,210.0,249.6,264.0,0,0,0,0,1,1,0,1,1
102,106,1,0.05,0.192,0.052,210.0,249.6,264.0,0,0,0,0,1,1,0,1,1
103,109,1,0.031,0.119,0.032,210.0,249.6,264.0,0,0,0,0,1,1,0,1,1
104,109,1,0.027,0.104,0.028,210.0,249.6,264.0,0,0,0,0,1,1,0,1,1
105,110,1,0.023,0.088,0.024,210.0,249.6,264.0,0,0,0,0,1,1,0,1,1
106,110,1,0.014,0.061,2.459,210.0,231.6,240.0,0,0,0,0,1,1,0,1,1
107,108,1,0.016,0.061,0.017,210.0,249.6,264.0,0,0,0,0,1,1,0,1,1
107,203,1,0.042,0.161,0.044,210.0,249.6,264.0,0,0,0,0,1,1,0,1,1
108,109,1,0.043,0.165,0.045,210.0,249.6,264.0,0,0,0,0,1,1,0,1,1
108,110,1,0.043,0.165,0.045,210.0,249.6,264.0,0,0,0,0,1,1,0,1,1
111,113,1,0.006,0.048,0.1,600.0,720.0,750.0,0,0,0,0,1,1,0,1,1
111,114,1,0.005,0.042,0.088,600.0,720.0,750.0,0,0,0,0,1,1,0,1,1
112,113,1,0.006,0.048,0.1,600.0,720.0,750.0,0,0,0,0,1,1,0,1,1
112,123,1,0.012,0.097,0.203,600.0,720.0,750.0,0,0,0,0,1,1,0,1,1
113,123,1,0.011,0.087,0.182,600.0,720.0,750.0,0,0,0,0,1,1,0,1,1
113,215,1,0.01,0.075,0.158,600.0,720.0,750.0,0,0,0,0,1,1,0,1,1
114,116,1,0.005,0.059,0.082,600.0,720.0,750.0,0,0,0,0,1,1,0,1,1
115,116,1,0.002,0.017,0.036,600.0,720.0,750.0,0,0,0,0,1,1,0,1,1
115,121,1,0.006,0.049,0.103,600.0,720.0,750.0,0,0,0,0,1,1,0,1,1
115,121,2,0.006,0.049,0.103,600.0,720.0,750.0,0,0,0,0,1,1,0,1,1
115,124,1,0.007,0.052,0.109,600.0,720.0,750.0,0,0,0,0,1,1,0,1,1
116,117,1,0.003,0.026,0.055,600.0,720.0,750.0,0,0,0,0,1,1,0,1,1
116,119,1,0.003,0.023,0.049,600.0,720.0,750.0,0,0,0,0,1,1,0,1,1
117,118,1,0.002,0.014,0.03,600.0,720.0,750.0,0,0,0,0,1,1,0,1,1
117,122,1,0.014,0.105,0.221,600.0,720.0,750.0,0,0,0,0,1,1,0,1,1
118,121,1,0.003,0.026,0.055,600.0,720.0,750.0,0,0,0,0,1,1,0,1,1
118,121,2,0.003,0.026,0.055,600.0,720.0,750.0,0,0,0,0,1,1,0,1,1
119,120,1,0.005,0.04,0.083,600.0,720.0,750.0,0,0,0,0,1,1,0,1,1
119,120,2,0.005,0.04,0.083,600.0,720.0,750.0,0,0,0,0,1,1,0,1,1
120,123,1,0.003,0.022,0.046,600.0,720.0,750.0,0,0,0,0,1,1,0,1,1
120,123,2,0.003,0.022,0.046,600.0,720.0,750.0,0,0,0,0,1,1,0,1,1
121,122,1,0.009,0.068,0.142,600.0,720.0,750.0,0,0,0,0,1,1,0,1,1
123,217,1,0.01,0.074,0.155,600.0,720.0,750.0,0,0,0,0,1,1,0,1,1
201,202,1,0.003,0.014,0.461,210.0,231.6,240.0,0,0,0,0,1,1,0,1,1
201,203,1,0.055,0.211,0.057,210.0,249.6,264.0,0,0,0,0,1,1,0,1,1
201,205,1,0.022,0.085,0.023,210.0,249.6,264.0,0,0,0,0,1,1,0,1,1
202,204,1,0.033,0.127,0.034,210.0,249.6,264.0,0,0,0,0,1,1,0,1,1
202,206,1,0.05,0.192,0.052,210.0,249.6,264.0,0,0,0,0,1,1,0,1,1
203,209,1,0.031,0.119,0.032,210.0,249.6,264.0,0,0,0,0,1,1,0,1,1
204,209,1,0.027,0.104,0.028,210.0,249.6,264.0,0,0,0,0,1,1,0,1,1
205,210,1,0.023,0.088,0.024,210.0,249.6,264.0,0,0,0,0,1,1,0,1,1
206,210,1,0.014,0.061,2.459,210.0,231.6,240.0,0,0,0,0,1,1,0,1,1
207,208,1,0.016,0.061,0.017,210.0,249.6,264.0,0,0,0,0,1,1,0,1,1
208,209,1,0.043,0.165,0.045,210.0,249.6,264.0,0,0,0,0,1,1,0,1,1
208,210,1,0.043,0.165,0.045,210.0,249.6,264.0,0,0,0,0,1,1,0,1,1
211,213,1,0.006,0.048,0.1,600.0,720.0,750.0,0,0,0,0,1,1,0,1,1
211,214,1,0.005,0.042,0.088,600.0,720.0,750.0,0,0,0,0,1,1,0,1,1
212,213,1,0.006,0.048,0.1,600.0,720.0,750.0,0,0,0,0,1,1,0,1,1
212,223,1,0.012,0.097,0.203,600.0,720.0,750.0,0,0,0,0,1,1,0,1,1
213,223,1,0.011,0.087,0.182,600.0,720.0,750.0,0,0,0,0,1,1,0,1,1
214,216,1,0.005,0.059,0.082,600.0,720.0,750.0,0,0,0,0,1,1,0,1,1
215,216,1,0.002,0.017,0.036,600.0,720.0,750.0,0,0,0,0,1,1,0,1,1
215,221,1,0.006,0.049,0.103,600.0,720.0,750.0,0,0,0,0,1,1,0,1,1
215,221,2,0.006,0.049,0.103,600.0,720.0,750.0,0,0,0,0,1,1,0,1,1
215,224,1,0.007,0.052,0.109,600.0,720.0,750.0,0,0,0,0,1,1,0,1,1
216,217,1,0.003,0.026,0.055,600.0,720.0,750.0,0,0,0,0,1,1,0,1,1
216,219,1,0.003,0.023,0.049,600.0,720.0,750.0,0,0,0,0,1,1,0,1,1
217,218,1,0.002,0.014,0.03,600.0,720.0,750.0,0,0,0,0,1,1,0,1,1
217,222,1,0.014,0.105,0.221,600.0,720.0,750.0,0,0,0,0,1,1,0,1,1
218,221,1,0.003,0.026,0.055,600.0,720.0,750.0,0,0,0,0,1,1,0,1,1
218,221,2,0.003,0.026,0.055,600.0,720.0,750.0,0,0,0,0,1,1,0,1,1
219,220,1,0.005,0.04,0.083,600.0,720.0,750.0,0,0,0,0,1,1,0,1,1
219,220,2,0.005,0.04,0.083,600.0,720.0,750.0,0,0,0,0,1,1,0,1,1
220,223,1,0.003,0.022,0.046,600.0,720.0,750.0,0,0,0,0,1,1,0,1,1
220,223,2,0.003,0.022,0.046,600.0,720.0,750.0,0,0,0,0,1,1,0,1,1
221,222,1,0.009,0.068,0.142,600.0,720.0,750.0,0,0,0,0,1,1,0,1,1
301,302,1,0.003,0.014,0.461,210.0,231.6,240.0,0,0,0,0,1,1,0,1,1
301,303,1,0.055,0.211,0.057,210.0,249.6,264.0,0,0,0,0,1,1,0,1,1
301,305,1,0.022,0.085,0.023,210.0,249.6,264.0,0,0,0,0,1,1,0,1,1
302,304,1,0.033,0.127,0.034,210.0,249.6,264.0,0,0,0,0,1,1,0,1,1
302,306,1,0.05,0.192,0.052,210.0,249.6,264.0,0,0,0,0,1,1,0,1,1
303,309,1,0.031,0.119,0.032,210.0,249.6,264.0,0,0,0,0,1,1,0,1,1
304,309,1,0.027,0.104,0.028,210.0,249.6,264.0,0,0,0,0,1,1,0,1,1
305,310,1,0.023,0.088,0.024,210.0,249.6,264.0,0,0,0,0,1,1,0,1,1
306,310,1,0.014,0.061,2.459,210.0,231.6,240.0,0,0,0,0,1,1,0,1,1
307,308,1,0.016,0.061,0.017,210.0,249.6,264.0,0,0,0,0,1,1,0,1,1
308,309,1,0.043,0.165,0.045,210.0,249.6,264.0,0,0,0,0,1,1,0,1,1
308,310,1,0.043,0.165,0.045,210.0,249.6,264.0,0,0,0,0,1,1,0,1,1
311,313,1,0.006,0.048,0.1,600.0,720.0,750.0,0,0,0,0,1,1,0,1,1
311,314,1,0.005,0.042,0.088,600.0,720.0,750.0,0,0,0,0,1,1,0,1,1
312,313,1,0.006,0.048,0.1,600.0,720.0,750.0,0,0,0,0,1,1,0,1,1
312,323,1,0.012,0.097,0.203,600.0,720.0,750.0,0,0,0,0,1,1,0,1,1
313,323,1,0.011,0.087,0.182,600.0,720.0,750.0,0,0,0,0,1,1,0,1,1
314,316,1,0.005,0.059,0.082,600.0,720.0,750.0,0,0,0,0,1,1,0,1,1
315,316,1,0.002,0.017,0.036,600.0,720.0,750.0,0,0,0,0,1,1,0,1,1
315,321,1,0.006,0.049,0.103,600.0,720.0,750.0,0,0,0,0,1,1,0,1,1
315,321,2,0.006,0.049,0.103,600.0,720.0,750.0,0,0,0,0,1,1,0,1,1
315,324,1,0.007,0.052,0.109,600.0,720.0,750.0,0,0,0,0,1,1,0,1,1
316,317,1,0.003,0.026,0.055,600.0,720.0,750.0,0,0,0,0,1,1,0,1,1
316,319,1,0.003,0.023,0.049,600.0,720.0,750.0,0,0,0,0,1,1,0,1,1
317,318,1,0.002,0.014,0.03,600.0,720.0,750.0,0,0,0,0,1,1,0,1,1
317,322,1,0.014,0.105,0.221,600.0,720.0,750.0,0,0,0,0,1,1,0,1,1
318,223,1,0.013,0.104,0.218,600.0,720.0,750.0,0,0,0,0,1,1,0,1,1
318,321,1,0.003,0.026,0.055,600.0,720.0,750.0,0,0,0,0,1,1,0,1,1
318,321,2,0.003,0.026,0.055,600.0,720.0,750.0,0,0,0,0,1,1,0,1,1
319,320,1,0.005,0.04,0.083,600.0,720.0,750.0,0,0,0,0,1,1,0,1,1
319,320,2,0.005,0.04,0.083,600.0,720.0,750.0,0,0,0,0,1,1,0,1,1
320,323,1,0.003,0.022,0.046,600.0,720.0,750.0,0,0,0,0,1,1,0,1,1
320,323,2,0.003,0.022,0.046,600.0,720.0,750.0,0,0,0,0,1,1,0,1,1
321,322,1,0.009,0.068,0.142,600.0,720.0,750.0,0,0,0,0,1,1,0,1,1
323,325,1,0,0.009,0,866.4,1071.6,1071.6,0,0,0,0,1,1,0,1,1
325,121,1,0.012,0.097,0.203,600.0,720.0,750.0,0,0,0,0,1,1,0,1,1
0 / END OF BRANCH DATA, BEGIN TRANSFORMER DATA
  103 ,  124 , 0,  1 , 1, 1, 1, 0, 0, 2, '            ',  1 , 1, 1
   0.002000 ,  0.084000 ,  100.000000
   1.015000 , 0,  0.000000 ,  400.000000 ,  510.000000 ,  600.000000 , 0, 0,  1.10 ,  0.90 ,  1.10 ,  0.90 , 33, 0, 0, 0
   1.000000, 0
  109 ,  111 , 0,  1 , 1, 1, 1, 0, 0, 2, '            ',  1 , 1, 1
   0.002000 ,  0.084000 ,  100.000000
   1.030000 , 0,  0.000000 ,  400.000000 ,  510.000000 ,  600.000000 , 0, 0,  1.10 ,  0.90 ,  1.10 ,  0.90 , 33, 0, 0, 0
   1.000000, 0
  109 ,  112 , 0,  1 , 1, 1, 1, 0, 0, 2, '            ',  1 , 1, 1
   0.002000 ,  0.084000 ,  100.000000
   1.030000 , 0,  0.000000 ,  400.000000 ,  510.000000 ,  600.000000 , 0, 0,  1.10 ,  0.90 ,  1.10 ,  0.90 , 33, 0, 0, 0
   1.000000, 0
  110 ,  111 , 0,  1 , 1, 1, 1, 0, 0, 2, '            ',  1 , 1, 1
   0.002000 ,  0.084000 ,  100.000000
   1.015000 , 0,  0.000000 ,  400.000000 ,  510.000000 ,  600.000000 , 0, 0,  1.10 ,  0.90 ,  1.10 ,  0.90 , 33, 0, 0, 0
   1.000000, 0
  110 ,  112 , 0,  1 , 1, 1, 1, 0, 0, 2, '            ',  1 , 1, 1
   0.002000 ,  0.084000 ,  100.000000
   1.015000 , 0,  0.000000 ,  400.000000 ,  510.000000 ,  600.000000 , 0, 0,  1.10 ,  0.90 ,  1.10 ,  0.90 , 33, 0, 0, 0
   1.000000, 0
  203 ,  224 , 0,  1 , 1, 1, 1, 0, 0, 2, '            ',  1 , 1, 1
   0.002000 ,  0.084000 ,  100.000000
   1.015000 , 0,  0.000000 ,  400.000000 ,  510.000000 ,  600.000000 , 0, 0,  1.10 ,  0.90 ,  1.10 ,  0.90 , 33, 0, 0, 0
   1.000000, 0
  209 ,  211 , 0,  1 , 1, 1, 1, 0, 0, 2, '            ',  1 , 1, 1
   0.002000 ,  0.084000 ,  100.000000
   1.030000 , 0,  0.000000 ,  400.000000 ,  510.000000 ,  600.000000 , 0, 0,  1.10 ,  0.90 ,  1.10 ,  0.90 , 33, 0, 0, 0
   1.000000, 0
  209 ,  212 , 0,  1 , 1, 1, 1, 0, 0, 2, '            ',  1 , 1, 1
   0.002000 ,  0.084000 ,  100.000000
   1.030000 , 0,  0.000000 ,  400.000000 ,  510.000000 ,  600.000000 , 0, 0,  1.10 ,  0.90 ,  1.10 ,  0.90 , 33, 0, 0, 0
   1.000000, 0
  210 ,  211 , 0,  1 , 1, 1, 1, 0, 0, 2, '            ',  1 , 1, 1
   0.002000 ,  0.084000 ,  100.000000
   1.015000 , 0,  0.000000 ,  400.000000 ,  510.000000 ,  600.000000 , 0, 0,  1.10 ,  0.90 ,  1.10 ,  0.90 , 33, 0, 0, 0
   1.000000, 0
  210 ,  212 , 0,  1 , 1, 1, 1, 0, 0, 2, '            ',  1 , 1, 1
   0.002000 ,  0.084000 ,  100.000000
   1.015000 , 0,  0.000000 ,  400.000000 ,  510.000000 ,  600.000000 , 0, 0,  1.10 ,  0.90 ,  1.10 ,  0.90 , 33, 0, 0, 0
   1.000000, 0
  303 ,  324 , 0,  1 , 1, 1, 1, 0, 0, 2, '            ',  1 , 1, 1
   0.002000 ,  0.084000 ,  100.000000
   1.015000 , 0,  0.000000 ,  400.000000 ,  510.000000 ,  600.000000 , 0, 0,  1.10 ,  0.90 ,  1.10 ,  0.90 , 33, 0, 0, 0
   1.000000, 0
  309 ,  311 , 0,  1 , 1, 1, 1, 0, 0, 2, '            ',  1 , 1, 1
   0.002000 ,  0.084000 ,  100.000000
   1.030000 , 0,  0.000000 ,  400.000000 ,  510.000000 ,  600.000000 , 0, 0,  1.10 ,  0.90 ,  1.10 ,  0.90 , 33, 0, 0, 0
   1.000000, 0
  309 ,  312 , 0,  1 , 1, 1, 1, 0, 0, 2, '            ',  1 , 1, 1
   0.002000 ,  0.084000 ,  100.000000
   1.030000 , 0,  0.000000 ,  400.000000 ,  510.000000 ,  600.000000 , 0, 0,  1.10 ,  0.90 ,  1.10 ,  0.90 , 33, 0, 0, 0
   1.000000, 0
  310 ,  311 , 0,  1 , 1, 1, 1, 0, 0, 2, '            ',  1 , 1, 1
   0.002000 ,  0.084000 ,  100.000000
   1.015000 , 0,  0.000000 ,  400.000000 ,  510.000000 ,  600.000000 , 0, 0,  1.10 ,  0.90 ,  1.10 ,  0.90 , 33, 0, 0, 0
   1.000000, 0
  310 ,  312 , 0,  1 , 1, 1, 1, 0, 0, 2, '            ',  1 , 1, 1
   0.002000 ,  0.084000 ,  100.000000
   1.015000 , 0,  0.000000 ,  400.000000 ,  510.000000 ,  600.000000 , 0, 0,  1.10 ,  0.90 ,  1.10 ,  0.90 , 33, 0, 0, 0
   1.000000, 0
0 / END OF TRANSFORMER DATA, BEGIN AREA DATA
0 / END OF AREA DATA, BEGIN TWO-TERMINAL DC DATA
0 / END OF TWO-TERMINAL DC DATA, BEGIN VSC DC LINE DATA
0 / END OF VSC DC LINE DATA, BEGIN SWITCHED SHUNT DATA
0 / END OF SWITCHED SHUNT DATA, BEGIN IMPEDANCE CORRECTION DATA
0 / END OF IMPEDANCE CORRECTION DATA, BEGIN MULTI-TERMINAL DC DATA
0 / END OF MULTI-TERMINAL DC DATA, BEGIN MULTI-SECTION LINE DATA
0 / END OF MULTI-SECTION LINE DATA, BEGIN ZONE DATA
0 / END OF ZONE DATA, BEGIN INTER-AREA TRANSFER DATA
0 / END OF INTER-AREA TRANSFER DATA, BEGIN OWNER DATA
0 / END OF OWNER DATA, BEGIN FACTS CONTROL DEVICE DATA
0 / END OF FACTS CONTROL DEVICE DATA
0 / END OF SWITCHED SHUNT DATA, BEGIN GNE DATA
0 / END OF GNE DATA, BEGIN INDUCTION MACHINE DATA
0 / END OF INDUCTION MACHINE DATA
Q 
